!-------------------------------------------------------------------------------
!-- INITIALIZATION PARAMETER NAMELIST
!-------------------------------------------------------------------------------
 &initialization_parameters

!
!-- Grid
!------------------------------------------------------------------------------
    nx                   = 39,
    ny                   = 39,
    nz                   = 60,

    dx                   = 1.0,
    dy                   = 1.0,
    dz                   = 1.0,

!
!-- Numerics
!------------------------------------------------------------------------------
    fft_method           = 'fftw',

!
!-- Mode
!------------------------------------------------------------------------------
    humidity             = .T.,
    q_surface            = 0.001,

!
!-- Initialization
!------------------------------------------------------------------------------
    initializing_actions = 'set_constant_profiles',

    pt_surface           = 277.15,
    ug_surface           = 1.0,
    vg_surface           = 1.0,

    origin_date_time     = '2019-06-03 10:00:00 +00'

!
!-- Wall/soil spinup
!------------------------------------------------------------------------------
    spinup_time         = 1200.0,
    spinup_pt_mean      = 284.15,
    spinup_pt_amplitude = 10.0,             ! give a dirunal cycle from 6 - 16 °C
    data_output_during_spinup = .F.,

!
!-- Topography
!------------------------------------------------------------------------------
    topography           = 'read_from_file',
    cut_cell_topography  = .TRUE.,


    allow_roughness_limitation = .T.,

!
!-- Physics
!------------------------------------------------------------------------------
    longitude            = 13.4,
    latitude             = 52.5,

/ ! end of initialization parameter namelist

!-------------------------------------------------------------------------------
!-- RUNTIME PARAMETER NAMELIST
!-------------------------------------------------------------------------------
 &runtime_parameters

!
!-- Run steering
!------------------------------------------------------------------------------
    end_time              = 1.3,
    create_disturbances   = .T.,

!
!-- Run-control/timeseries output settings
!------------------------------------------------------------------------------
    dt_run_control        =  0.0,

!
!-- Profile output settings
!------------------------------------------------------------------------------
    skip_time_dopr        =  0.0,
    dt_dopr               =  2.0,
    averaging_interval_pr =  2.0,
    dt_averaging_input_pr =  0.0,

    data_output_pr        = '#u',  'u*2',  'wu',  'w*u*',  'w"u"',
                            '#v',  'v*2',  'wv',  'w*v*',  'w"v"',
                            'w',   'w*2',
                            '#theta', 'theta*2', 'wtheta', 'w*theta*', 'w"theta"',
                            '#q',
                            '#t_soil', '#m_soil', 'rad_lw_in', 'rad_lw_out',



/ ! end of runtime parameter namelist

!-------------------------------------------------------------------------------
!-- RADIATION MODEL PARAMETER NAMELIST
!-------------------------------------------------------------------------------
 &radiation_parameters

     radiation_scheme =  'rrtmg',

     dt_radiation = 60.0,

     surface_reflections = .T.,
     localized_raytracing = .T.,
     nrefsteps = 3,

/ ! end of radiation model parameter namelist

!-------------------------------------------------------------------------------
!-- LAND SURFACE MODEL PARAMETER NAMELIST
!-------------------------------------------------------------------------------
 &land_surface_parameters

    constant_roughness     = .T.,
    aero_resist_kray       = .T.,

    vegetation_type        = 2,
    soil_type              = 3,
    conserve_water_content = .T.,

    root_fraction          = 0.49, 0.26, 0.25, 0.0, 0.0, 0.0, 0.0, 0.0,
    soil_temperature       = 287.15, 285.0, 284.0, 282.0, 278.0, 277.0, 277.0, 277.0,
    soil_moisture          = 0.30,   0.30,  0.30,  0.30,  0.30, 0.30,  0.30,  0.30,
    deep_soil_temperature  = 277.0,

/ ! end of land surface model parameter namelist


!-------------------------------------------------------------------------------
!-- URBAN SURFACE MODEL PARAMETER NAMELIST
!-------------------------------------------------------------------------------
 &urban_surface_parameters

    switch_off_module = .F.,

/ ! end of urban surface model parameter namelist


